Version 4
SHEET 1 880 680
WIRE 304 32 64 32
WIRE 304 48 304 32
WIRE 64 128 64 32
WIRE 304 176 304 128
WIRE 304 208 304 176
WIRE 64 288 64 208
WIRE 304 288 64 288
WIRE 64 320 64 288
FLAG 64 320 0
FLAG 304 32 a
FLAG 304 176 b
FLAG 304 288 c
SYMBOL voltage 64 112 R0
WINDOW 123 0 0 Left 0
WINDOW 39 0 0 Left 0
SYMATTR InstName V1
SYMATTR Value PULSE(-3 3 0 1u 1u 0.05 0.1)
SYMBOL res 288 32 R0
SYMATTR InstName R1
SYMATTR Value 1k
SYMATTR SpiceLine tol=5 pwr=0.1
SYMBOL res 288 192 R0
SYMATTR InstName R2
SYMATTR Value 1.5k
SYMATTR SpiceLine tol=5 pwr=0.1
TEXT 32 352 Left 2 !.tran 1
