Version 4
SHEET 1 880 680
WIRE 160 64 80 64
WIRE 224 64 160 64
WIRE 320 64 288 64
WIRE 368 64 320 64
WIRE 368 128 368 64
WIRE 80 144 80 64
WIRE 80 272 80 224
WIRE 176 272 80 272
WIRE 224 272 176 272
WIRE 336 272 288 272
WIRE 368 272 368 208
WIRE 368 272 336 272
WIRE 80 288 80 272
FLAG 80 288 0
FLAG 160 64 a
FLAG 320 64 d
FLAG 336 272 c
FLAG 176 272 b
SYMBOL voltage 80 128 R0
WINDOW 123 0 0 Left 0
WINDOW 39 0 0 Left 0
SYMATTR InstName E
SYMATTR Value SINE(0 10 10)
SYMBOL diode 288 48 R90
WINDOW 0 0 32 VBottom 2
WINDOW 3 32 32 VTop 2
SYMATTR InstName D1
SYMBOL diode 224 288 R270
WINDOW 0 32 32 VTop 2
WINDOW 3 0 32 VBottom 2
SYMATTR InstName D2
SYMBOL res 352 112 R0
SYMATTR InstName R
SYMATTR Value 220
SYMATTR SpiceLine tol=1 pwr=0.1
TEXT 46 322 Left 2 !.tran 1
